&time_control
 start_year                          = STRT_Y,
 start_month                         = STRT_m,
 start_day                           = STRT_d,
 start_hour                          = STRT_H,
 start_minute                        = STRT_M,
 start_second                        = STRT_S,
 end_year                            = STOP_Y,
 end_month                           = STOP_m,
 end_day                             = STOP_d,
 end_hour                            = STOP_H,
 end_minute                          = STOP_M,
 end_second                          = STOP_S,
 interval_seconds                    = INT_SEC,
 input_from_file                     = .true., .true.,
 ! Interpolates the ICs for the nest from the parent domain when =2 below, 0 for ICs from file !
 fine_input_stream                   = 2,
 history_interval                    = HIST_INT,
 history_outname                     = "./wrfout_d<domain>_<date>",
 io_form_history                     = 2,
 io_form_boundary                    = 2,
 frames_per_outfile                  = 1, 1, 1,
 restart                             = RSTRT,
 ! NOTE: this setting is needed to set the restart interval from the namelist settings alone !
 override_restart_timers             = .true.,
 restart_interval                    = RSTRT_INT,
 rst_inname                          = "./wrfrst_d<domain>_<date>",
 rst_outname                         = "./wrfrst_d<domain>_<date>",
 io_form_restart                     = 2,
 input_inname                        = "wrfinput_d<domain>",
 input_outname                       = "wrfinput_d<domain>",
 io_form_input                       = 2,
 bdy_inname                          = "./wrfbdy_d<domain>",
 bdy_outname                         = "./wrfbdy_d<domain>",
 io_form_boundary                    = 2,
 auxinput1_inname                    = "./met_em.d<domain>.<date>"
 io_form_auxinput1                   = 2,
 auxhist2_interval                   = AUXHIST2_INT,
 auxhist2_outname                    = "./auxhist2_<domain>_<date>",
 frames_per_auxhist2                 = 1, 1, 1,
 io_form_auxinput2		     = 2,
 io_form_auxhist2                    = 2,
 auxinput4_inname                    = "./wrflowinp_d<domain>",
 auxinput4_outname                   = "./wrflowinp_d<domain>",
 auxinput4_interval                  = AUXINPUT4_INT,
 io_form_auxinput4                   = 2,
 debug_level                         = 0,
 diag_print			     = 1,
 nocolons                            = .true.,
/

&domains
 time_step                           = 54,
 reasonable_time_step_ratio          = 20.,
 use_adaptive_time_step              = .false.,
 step_to_output_time                 = .true.,
 target_cfl                          = 1.2,     1.2,
 target_hcfl                         = 0.9,     0.9,
 max_step_increase_pct               = 3,       25,
 starting_time_step                  = 27,      9,
 max_time_step                       = 66,      22,
 min_time_step                       = 9,       3,
 adaptation_domain                   = 1,
 time_step_fract_num                 = 0,
 time_step_fract_den                 = 1,
 max_dom                             = MAX_DOM,
 e_we                                = 828, 730,
 e_sn                                = 570, 760,
 p_top_requested                     = 1000,
 e_vert                              = 60, 60,
 max_dz                              = 1000.,
 dzbot                               = 50.,
 dzstretch_s                         = 1.18,
 dzstretch_u                         = 1.035,
 !! GEFS setting AWS 2021 on !!
 num_metgrid_levels                  = 32,
 num_metgrid_soil_levels             = 4,
 parent_grid_ratio                   = 1,        3,    
 parent_time_step_ratio              = 1,        3,  
 dx                                  = 8894.198, 2964.733,
 dy                                  = 8894.198, 2964.733,
 grid_id                             = 1,        2,
 parent_id                           = 0,        1,
 i_parent_start                      = 1,        562,
 j_parent_start                      = 1,        172,
 feedback                            = IF_FEEDBACK,
 smooth_option                       = 0,
 nproc_x                             = -1,
 nproc_y                             = -1 
/

&physics
 mp_physics                          = 8,    8,    
 ra_lw_physics                       = 4,    4,    
 ra_sw_physics                       = 4,    4,    
 radt                                = 9,    3,   
 sf_sfclay_physics                   = 5,    5,    
 sf_surface_physics                  = 4,    4,    
 bl_pbl_physics                      = 5,    5,
 topo_wind                           = 1,    1,      
 bldt                                = 0,    0,    
 cu_physics                          = 3,    0,    
 cudt                                = 3,    0,   
 shcu_physics                        = 0,    0,
 isfflx                              = 1,
 ifsnow                              = 1,
 icloud                              = 1,
 surface_input_source                = 1,
 num_land_cat                        = 21,   
 num_soil_layers                     = 4,
 sf_urban_physics                    = 0,    0,
 do_radar_ref                        = 1,
 prec_acc_dt                         = 180., 180.,
 lightning_option                    = 2,
 lightning_dt                        = 0,
 lightning_start_seconds             = 0,
 flashrate_factor                    = 1,
 cellcount_method                    = 0,
 cldtop_adjustment                   = 0,
 iccg_method                         = 0,
 iccg_prescribed_num                 = 0,
 iccg_prescribed_den                 = 1
/

&noah_mp
 dveg                                = 4,
 opt_crs                             = 1,
 opt_sfc                             = 1,
 opt_btr                             = 1,
 opt_run                             = 3,
 opt_frz                             = 1,
 opt_inf                             = 1,
 opt_rad                             = 3,
 opt_alb                             = 2,
 opt_snf                             = 1,
 opt_tbot                            = 2,
 opt_stc                             = 1,
 opt_gla                             = 1,
 opt_rsf                             = 1,
 opt_soil                            = 1,
 opt_crop                            = 0
/

&dynamics
 zadvect_implicit                    = 1,
 w_damping                           = 1,
 w_crit_cfl                          = 1.5,
 diff_opt                            = 1, 1,
 km_opt                              = 4, 4,
 diff_6th_opt                        = 0,      0,
 diff_6th_factor                     = 0.12,   0.12,
 base_temp                           = 290.,
 damp_opt                            = 3,
 zdamp                               = 5000.,  5000.,
 dampcoef                            = 0.2,    0.2,
 khdif                               = 0,      0,
 kvdif                               = 0,      0,
 non_hydrostatic                     = .true., .true.,
 moist_adv_opt                       = 1,      1,     
 scalar_adv_opt                      = 1,      1,     
 epssm                               = 0.5,    0.4,
 hybrid_opt                          = 2,
 gwd_opt                             = 1,      1,
/

&bdy_control
 spec_bdy_width                      = 5,
 spec_zone                           = 1,
 relax_zone                          = 4,
 specified                           = .true., .false.,
 nested                              = .false., .true.,
 polar                               = .false., .false.
/

&grib2
/

&namelist_quilt
 nio_tasks_per_group = NIO_TPG,
 nio_groups = NIO_GROUPS,
/
