&share
 max_dom           = MAX_DOM,
 start_date        = STRT_DT,
 end_date          = STOP_DT,
 interval_seconds  = INT_SEC,
 debug_level       = 0,
/

&ungrib
 out_format        = 'WPS',
 prefix            = PREFIX,
/
