&nhyd_model
    config_time_integration_order = 2
    config_dt = 18.0
    config_start_time = STRT_DT,
    config_run_duration = FCST_HRS,
    config_split_dynamics_transport = true
    config_number_of_sub_steps = 2
    config_dynamics_split_steps = 3
    config_horiz_mixing = '2d_smagorinsky'
    config_visc4_2dsmag = 0.05
    config_scalar_advection = true
    config_monotonic = true
    config_coef_3rd_order = 0.25
    config_epssm = 0.1
    config_smdiv = 0.1
/
&damping
    config_zd = 22000.0
    config_xnutr = 0.2
/
&limited_area
    config_apply_lbcs = IF_RGNL,
/
&restart
    config_do_restart = IF_RSTRT,
    config_do_DAcycling = IF_DACYC,
/
&assimilation/
    config_jedi_da = IF_DA,
/
&IAU
    config_IAU_option = IF_IAU,
    config_IAU_window_length_s = 21600.
/
&printout
    config_print_global_minmax_vel = true
    config_print_detailed_minmax_vel = false
/
&physics
    config_sst_update = IF_SST_UPDT,
    config_sstdiurn_update = IF_SST_DIURN,
    config_deepsoiltemp_update = IF_DEEPSOIL,
    config_radtlw_interval = '01:00:00'
    config_radtsw_interval = '01:00:00'
    config_bucket_update = 'none'
    config_physics_suite = 'convection_permitting'
/
&soundings
    config_sounding_interval = SND_INT,
/
&io
    config_pio_num_iotasks = PIO_NUM,
    config_pio_stride = PIO_STRD,
/
&decomposition
    config_block_decomp_file_prefix = 'MSH_NME.graph.info.part.' 
/
